<configuration>
   <input>
       <net-file value="dynamic_density.net.xml"/>
       <route-files value="demand.rou.xml"/>
       <gui-settings-file value="dynamic_density.view.xml"/>
   </input>
</configuration>