<?xml version="1.0" encoding="UTF-8"?>

<!-- generated on 2022-11-03 17:04:21 by Eclipse SUMO netedit Version 1.14.1
<configuration xmlns:xsi="http://www.w3.org/2001/XMLSchema-instance" xsi:noNamespaceSchemaLocation="http://sumo.dlr.de/xsd/netconvertConfiguration.xsd">

    <input>
        <sumo-net-file value="C:\Users\jurev\Documents\Faks\its\its-project\demos\dynamic_density\dynamic_density.net.xml"/>
    </input>

    <output>
        <output-file value="C:\Users\jurev\Documents\Faks\its\its-project\demos\dynamic_density\dynamic_density.net.xml"/>
    </output>

    <processing>
        <geometry.min-radius.fix.railways value="false"/>
        <geometry.max-grade.fix value="false"/>
        <offset.disable-normalization value="true"/>
        <lefthand value="false"/>
    </processing>

    <junctions>
        <no-turnarounds value="true"/>
        <junctions.corner-detail value="5"/>
        <junctions.limit-turn-speed value="5.5"/>
        <rectangular-lane-cut value="false"/>
    </junctions>

    <pedestrian>
        <walkingareas value="false"/>
    </pedestrian>

</configuration>
-->

<net version="1.9" junctionCornerDetail="5" limitTurnSpeed="5.50" xmlns:xsi="http://www.w3.org/2001/XMLSchema-instance" xsi:noNamespaceSchemaLocation="http://sumo.dlr.de/xsd/net_file.xsd">

    <location netOffset="0.00,0.00" convBoundary="0.00,0.00,700.00,0.00" origBoundary="-10000000000.00,-10000000000.00,10000000000.00,10000000000.00" projParameter="!"/>

    <edge id=":J3_0" function="internal">
        <lane id=":J3_0_0" index="0" speed="36.11" length="0.10" shape="100.00,-8.00 100.00,-8.00"/>
        <lane id=":J3_0_1" index="1" speed="36.11" length="0.10" shape="100.00,-4.80 100.00,-4.80"/>
        <lane id=":J3_0_2" index="2" speed="36.11" length="0.10" shape="100.00,-1.60 100.00,-1.60"/>
    </edge>
    <edge id=":J4_0" function="internal">
        <lane id=":J4_0_0" index="0" speed="36.11" length="0.10" shape="600.00,-8.00 600.00,-8.00"/>
        <lane id=":J4_0_1" index="1" speed="36.11" length="0.10" shape="600.00,-4.80 600.00,-4.80"/>
        <lane id=":J4_0_2" index="2" speed="36.11" length="0.10" shape="600.00,-1.60 600.00,-1.60"/>
    </edge>

    <edge id="entry" from="J0" to="J3" priority="-1">
        <lane id="entry_0" index="0" speed="36.11" length="100.00" shape="0.00,-8.00 100.00,-8.00"/>
        <lane id="entry_1" index="1" speed="36.11" length="100.00" shape="0.00,-4.80 100.00,-4.80"/>
        <lane id="entry_2" index="2" speed="36.11" length="100.00" shape="0.00,-1.60 100.00,-1.60"/>
    </edge>
    <edge id="exit" from="J4" to="J1" priority="-1">
        <lane id="exit_0" index="0" speed="36.11" length="100.00" shape="600.00,-8.00 700.00,-8.00"/>
        <lane id="exit_1" index="1" speed="36.11" length="100.00" shape="600.00,-4.80 700.00,-4.80"/>
        <lane id="exit_2" index="2" speed="36.11" length="100.00" shape="600.00,-1.60 700.00,-1.60"/>
    </edge>
    <edge id="long_edge" from="J3" to="J4" priority="-1">
        <lane id="long_edge_0" index="0" speed="36.11" length="500.00" shape="100.00,-8.00 600.00,-8.00"/>
        <lane id="long_edge_1" index="1" speed="36.11" length="500.00" shape="100.00,-4.80 600.00,-4.80"/>
        <lane id="long_edge_2" index="2" speed="36.11" length="500.00" shape="100.00,-1.60 600.00,-1.60"/>
    </edge>

    <junction id="J0" type="dead_end" x="0.00" y="0.00" incLanes="" intLanes="" shape="0.00,0.00 0.00,-9.60"/>
    <junction id="J1" type="dead_end" x="700.00" y="0.00" incLanes="exit_0 exit_1 exit_2" intLanes="" shape="700.00,-9.60 700.00,0.00"/>
    <junction id="J3" type="priority" x="100.00" y="0.00" incLanes="entry_0 entry_1 entry_2" intLanes=":J3_0_0 :J3_0_1 :J3_0_2" shape="100.00,0.00 100.00,-9.60 100.00,0.00">
        <request index="0" response="000" foes="000" cont="0"/>
        <request index="1" response="000" foes="000" cont="0"/>
        <request index="2" response="000" foes="000" cont="0"/>
    </junction>
    <junction id="J4" type="priority" x="600.00" y="0.00" incLanes="long_edge_0 long_edge_1 long_edge_2" intLanes=":J4_0_0 :J4_0_1 :J4_0_2" shape="600.00,0.00 600.00,-9.60 600.00,0.00">
        <request index="0" response="000" foes="000" cont="0"/>
        <request index="1" response="000" foes="000" cont="0"/>
        <request index="2" response="000" foes="000" cont="0"/>
    </junction>

    <connection from="entry" to="long_edge" fromLane="0" toLane="0" via=":J3_0_0" dir="s" state="M"/>
    <connection from="entry" to="long_edge" fromLane="1" toLane="1" via=":J3_0_1" dir="s" state="M"/>
    <connection from="entry" to="long_edge" fromLane="2" toLane="2" via=":J3_0_2" dir="s" state="M"/>
    <connection from="long_edge" to="exit" fromLane="0" toLane="0" via=":J4_0_0" dir="s" state="M"/>
    <connection from="long_edge" to="exit" fromLane="1" toLane="1" via=":J4_0_1" dir="s" state="M"/>
    <connection from="long_edge" to="exit" fromLane="2" toLane="2" via=":J4_0_2" dir="s" state="M"/>

    <connection from=":J3_0" to="long_edge" fromLane="0" toLane="0" dir="s" state="M"/>
    <connection from=":J3_0" to="long_edge" fromLane="1" toLane="1" dir="s" state="M"/>
    <connection from=":J3_0" to="long_edge" fromLane="2" toLane="2" dir="s" state="M"/>
    <connection from=":J4_0" to="exit" fromLane="0" toLane="0" dir="s" state="M"/>
    <connection from=":J4_0" to="exit" fromLane="1" toLane="1" dir="s" state="M"/>
    <connection from=":J4_0" to="exit" fromLane="2" toLane="2" dir="s" state="M"/>

</net>
