<?xml version="1.0" encoding="UTF-8"?>

<!-- generated on 2022-11-26 23:14:17 by Eclipse SUMO netedit Version 1.14.1
<configuration xmlns:xsi="http://www.w3.org/2001/XMLSchema-instance" xsi:noNamespaceSchemaLocation="http://sumo.dlr.de/xsd/netconvertConfiguration.xsd">

    <input>
        <sumo-net-file value="/home/till/projects/uni/intelligent%20transport/its-project/highway_junctions/2_1_merge/2_1_merge.net.xml"/>
    </input>

    <output>
        <output-file value="/home/till/projects/uni/intelligent%20transport/its-project/highway_junctions/2_1_merge/2_1_merge.net.xml"/>
    </output>

    <processing>
        <geometry.min-radius.fix.railways value="false"/>
        <geometry.max-grade.fix value="false"/>
        <offset.disable-normalization value="true"/>
        <lefthand value="false"/>
    </processing>

    <junctions>
        <no-turnarounds value="true"/>
        <junctions.corner-detail value="5"/>
        <junctions.limit-turn-speed value="5.5"/>
        <rectangular-lane-cut value="false"/>
    </junctions>

    <pedestrian>
        <walkingareas value="false"/>
    </pedestrian>

</configuration>
-->

<net version="1.9" junctionCornerDetail="5" limitTurnSpeed="5.50" xmlns:xsi="http://www.w3.org/2001/XMLSchema-instance" xsi:noNamespaceSchemaLocation="http://sumo.dlr.de/xsd/net_file.xsd">

    <location netOffset="0.00,0.00" convBoundary="-1884.30,41.12,2430.90,76.56" origBoundary="-10000000000.00,-10000000000.00,10000000000.00,10000000000.00" projParameter="!"/>

    <edge id=":J0_0" function="internal">
        <lane id=":J0_0_0" index="0" speed="33.33" length="0.30" shape="-213.71,63.95 -213.41,63.95"/>
        <lane id=":J0_0_1" index="1" speed="33.33" length="0.30" shape="-213.75,67.15 -213.45,67.15"/>
        <lane id=":J0_0_2" index="2" speed="33.33" length="0.30" shape="-213.79,70.35 -213.49,70.35"/>
    </edge>
    <edge id=":J13_0" function="internal">
        <lane id=":J13_0_0" index="0" speed="33.33" length="0.30" shape="-505.87,60.04 -505.57,60.04"/>
        <lane id=":J13_0_1" index="1" speed="33.33" length="0.30" shape="-505.91,63.24 -505.61,63.24"/>
        <lane id=":J13_0_2" index="2" speed="33.33" length="0.30" shape="-505.96,66.44 -505.66,66.44"/>
    </edge>
    <edge id=":J15_0" function="internal">
        <lane id=":J15_0_0" index="0" speed="33.33" length="0.29" shape="-610.96,59.10 -610.62,59.10"/>
        <lane id=":J15_0_1" index="1" speed="33.33" length="0.29" shape="-610.94,62.30 -610.65,62.30"/>
        <lane id=":J15_0_2" index="2" speed="33.33" length="0.29" shape="-610.91,65.50 -610.67,65.50"/>
    </edge>
    <edge id=":J16_0" function="internal">
        <lane id=":J16_0_0" index="0" speed="33.33" length="0.30" shape="-682.99,59.64 -682.72,59.64"/>
        <lane id=":J16_0_1" index="1" speed="33.33" length="0.30" shape="-682.99,62.84 -682.69,62.84"/>
        <lane id=":J16_0_2" index="2" speed="33.33" length="0.30" shape="-682.99,66.04 -682.67,66.04"/>
    </edge>
    <edge id=":J17_0" function="internal">
        <lane id=":J17_0_0" index="0" speed="33.33" length="0.30" shape="-757.84,59.72 -757.56,59.72"/>
        <lane id=":J17_0_1" index="1" speed="33.33" length="0.30" shape="-757.85,62.92 -757.56,62.92"/>
        <lane id=":J17_0_2" index="2" speed="33.33" length="0.30" shape="-757.86,66.12 -757.55,66.12"/>
    </edge>
    <edge id=":J18_0" function="internal">
        <lane id=":J18_0_0" index="0" speed="33.33" length="0.30" shape="-892.09,59.28 -891.79,59.28"/>
        <lane id=":J18_0_1" index="1" speed="33.33" length="0.30" shape="-892.10,62.48 -891.80,62.48"/>
        <lane id=":J18_0_2" index="2" speed="33.33" length="0.30" shape="-892.12,65.68 -891.81,65.68"/>
    </edge>
    <edge id=":J19_0" function="internal">
        <lane id=":J19_0_0" index="0" speed="33.33" length="0.30" shape="-1024.43,58.65 -1024.11,58.65"/>
        <lane id=":J19_0_1" index="1" speed="33.33" length="0.30" shape="-1024.42,61.85 -1024.13,61.85"/>
        <lane id=":J19_0_2" index="2" speed="33.33" length="0.30" shape="-1024.41,65.05 -1024.14,65.05"/>
    </edge>
    <edge id=":J2_0" function="internal">
        <lane id=":J2_0_0" index="0" speed="33.33" length="0.30" shape="761.72,69.52 762.03,69.52"/>
        <lane id=":J2_0_1" index="1" speed="33.33" length="0.30" shape="761.74,72.72 762.02,72.72"/>
    </edge>
    <edge id=":J20_0" function="internal">
        <lane id=":J20_0_0" index="0" speed="33.33" length="0.30" shape="-1166.38,59.06 -1166.09,59.06"/>
        <lane id=":J20_0_1" index="1" speed="33.33" length="0.30" shape="-1166.38,62.26 -1166.09,62.26"/>
        <lane id=":J20_0_2" index="2" speed="33.33" length="0.30" shape="-1166.39,65.46 -1166.08,65.46"/>
    </edge>
    <edge id=":J21_0" function="internal">
        <lane id=":J21_0_0" index="0" speed="33.33" length="0.30" shape="-1306.77,58.96 -1306.48,58.96"/>
        <lane id=":J21_0_1" index="1" speed="33.33" length="0.30" shape="-1306.78,62.16 -1306.48,62.16"/>
        <lane id=":J21_0_2" index="2" speed="33.33" length="0.30" shape="-1306.79,65.36 -1306.48,65.36"/>
    </edge>
    <edge id=":J22_0" function="internal">
        <lane id=":J22_0_0" index="0" speed="33.33" length="0.30" shape="-1451.93,58.40 -1451.64,58.40"/>
        <lane id=":J22_0_1" index="1" speed="33.33" length="0.30" shape="-1451.95,61.60 -1451.65,61.60"/>
        <lane id=":J22_0_2" index="2" speed="33.33" length="0.30" shape="-1451.98,64.80 -1451.66,64.80"/>
    </edge>
    <edge id=":J25_0" function="internal">
        <lane id=":J25_0_0" index="0" speed="33.33" length="8.00" shape="162.09,71.71 170.06,71.74"/>
        <lane id=":J25_0_1" index="1" speed="33.33" length="8.00" shape="162.05,74.91 170.08,74.94"/>
    </edge>

    <edge id="seg_0_after" from="J25" to="J2" priority="-1" length="500.00">
        <lane id="seg_0_after_0" index="0" speed="33.33" length="500.00" shape="170.06,71.74 761.72,69.52"/>
        <lane id="seg_0_after_1" index="1" speed="33.33" length="500.00" shape="170.08,74.94 761.74,72.72"/>
    </edge>
    <edge id="seg_0_before" from="J0" to="J25" priority="-1" length="275.00">
        <lane id="seg_0_before_0" index="0" speed="33.33" length="275.00" shape="-213.41,63.95 162.13,68.51"/>
        <lane id="seg_0_before_1" index="1" speed="33.33" length="275.00" shape="-213.45,67.15 162.09,71.71"/>
        <lane id="seg_0_before_2" index="2" speed="33.33" length="275.00" shape="-213.49,70.35 162.05,74.91"/>
    </edge>
    <edge id="seg_10_before" from="J23" to="J22" priority="-1" length="1000.00" shape="-1545.99,65.66 -1884.30,41.12 -1451.83,66.40">
        <lane id="seg_10_before_0" index="0" speed="33.33" length="1000.00" shape="-1545.93,57.66 -1451.93,58.40"/>
        <lane id="seg_10_before_1" index="1" speed="33.33" length="1000.00" shape="-1545.95,60.86 -1451.95,61.60"/>
        <lane id="seg_10_before_2" index="2" speed="33.33" length="1000.00" shape="-1545.98,64.06 -1451.98,64.80"/>
    </edge>
    <edge id="seg_1_after" from="J2" to="J24" priority="-1" length="1000.00">
        <lane id="seg_1_after_0" index="0" speed="33.33" length="1000.00" shape="762.03,69.52 788.42,69.61"/>
        <lane id="seg_1_after_1" index="1" speed="33.33" length="1000.00" shape="762.02,72.72 788.41,72.81"/>
    </edge>
    <edge id="seg_1_before" from="J13" to="J0" priority="-1" length="300.00">
        <lane id="seg_1_before_0" index="0" speed="33.33" length="300.00" shape="-505.57,60.04 -213.71,63.95"/>
        <lane id="seg_1_before_1" index="1" speed="33.33" length="300.00" shape="-505.61,63.24 -213.75,67.15"/>
        <lane id="seg_1_before_2" index="2" speed="33.33" length="300.00" shape="-505.66,66.44 -213.79,70.35"/>
    </edge>
    <edge id="seg_2_before" from="J15" to="J13" priority="-1" length="500.00" shape="-610.79,67.10 -533.75,67.65 -505.83,68.04">
        <lane id="seg_2_before_0" index="0" speed="33.33" length="500.00" shape="-610.62,59.10 -533.67,59.65 -505.87,60.04"/>
        <lane id="seg_2_before_1" index="1" speed="33.33" length="500.00" shape="-610.65,62.30 -533.70,62.85 -505.91,63.24"/>
        <lane id="seg_2_before_2" index="2" speed="33.33" length="500.00" shape="-610.67,65.50 -533.73,66.05 -505.96,66.44"/>
    </edge>
    <edge id="seg_3_before" from="J16" to="J15" priority="-1" length="500.00">
        <lane id="seg_3_before_0" index="0" speed="33.33" length="500.00" shape="-682.72,59.64 -610.96,59.10"/>
        <lane id="seg_3_before_1" index="1" speed="33.33" length="500.00" shape="-682.69,62.84 -610.94,62.30"/>
        <lane id="seg_3_before_2" index="2" speed="33.33" length="500.00" shape="-682.67,66.04 -610.91,65.50"/>
    </edge>
    <edge id="seg_4_before" from="J17" to="J16" priority="-1" length="500.00">
        <lane id="seg_4_before_0" index="0" speed="33.33" length="500.00" shape="-757.56,59.72 -682.99,59.64"/>
        <lane id="seg_4_before_1" index="1" speed="33.33" length="500.00" shape="-757.56,62.92 -682.99,62.84"/>
        <lane id="seg_4_before_2" index="2" speed="33.33" length="500.00" shape="-757.55,66.12 -682.99,66.04"/>
    </edge>
    <edge id="seg_5_before" from="J18" to="J17" priority="-1" length="500.00">
        <lane id="seg_5_before_0" index="0" speed="33.33" length="500.00" shape="-891.79,59.28 -757.84,59.72"/>
        <lane id="seg_5_before_1" index="1" speed="33.33" length="500.00" shape="-891.80,62.48 -757.85,62.92"/>
        <lane id="seg_5_before_2" index="2" speed="33.33" length="500.00" shape="-891.81,65.68 -757.86,66.12"/>
    </edge>
    <edge id="seg_6_before" from="J19" to="J18" priority="-1" length="500.00">
        <lane id="seg_6_before_0" index="0" speed="33.33" length="500.00" shape="-1024.11,58.65 -892.09,59.28"/>
        <lane id="seg_6_before_1" index="1" speed="33.33" length="500.00" shape="-1024.13,61.85 -892.10,62.48"/>
        <lane id="seg_6_before_2" index="2" speed="33.33" length="500.00" shape="-1024.14,65.05 -892.12,65.68"/>
    </edge>
    <edge id="seg_7_before" from="J20" to="J19" priority="-1" length="500.00">
        <lane id="seg_7_before_0" index="0" speed="33.33" length="500.00" shape="-1166.09,59.06 -1024.43,58.65"/>
        <lane id="seg_7_before_1" index="1" speed="33.33" length="500.00" shape="-1166.09,62.26 -1024.42,61.85"/>
        <lane id="seg_7_before_2" index="2" speed="33.33" length="500.00" shape="-1166.08,65.46 -1024.41,65.05"/>
    </edge>
    <edge id="seg_8_before" from="J21" to="J20" priority="-1" length="500.00">
        <lane id="seg_8_before_0" index="0" speed="33.33" length="500.00" shape="-1306.48,58.96 -1166.38,59.06"/>
        <lane id="seg_8_before_1" index="1" speed="33.33" length="500.00" shape="-1306.48,62.16 -1166.38,62.26"/>
        <lane id="seg_8_before_2" index="2" speed="33.33" length="500.00" shape="-1306.48,65.36 -1166.39,65.46"/>
    </edge>
    <edge id="seg_9_before" from="J22" to="J21" priority="-1" length="500.00">
        <lane id="seg_9_before_0" index="0" speed="33.33" length="500.00" shape="-1451.64,58.40 -1306.77,58.96"/>
        <lane id="seg_9_before_1" index="1" speed="33.33" length="500.00" shape="-1451.65,61.60 -1306.78,62.16"/>
        <lane id="seg_9_before_2" index="2" speed="33.33" length="500.00" shape="-1451.66,64.80 -1306.79,65.36"/>
    </edge>

    <junction id="J0" type="priority" x="-213.66" y="71.95" incLanes="seg_1_before_0 seg_1_before_1 seg_1_before_2" intLanes=":J0_0_0 :J0_0_1 :J0_0_2" shape="-213.51,71.95 -213.39,62.35 -213.68,62.35 -213.81,71.95">
        <request index="0" response="000" foes="000" cont="0"/>
        <request index="1" response="000" foes="000" cont="0"/>
        <request index="2" response="000" foes="000" cont="0"/>
    </junction>
    <junction id="J13" type="priority" x="-505.83" y="68.04" incLanes="seg_2_before_0 seg_2_before_1 seg_2_before_2" intLanes=":J13_0_0 :J13_0_1 :J13_0_2" shape="-505.68,68.04 -505.55,58.44 -505.85,58.44 -505.98,68.04">
        <request index="0" response="000" foes="000" cont="0"/>
        <request index="1" response="000" foes="000" cont="0"/>
        <request index="2" response="000" foes="000" cont="0"/>
    </junction>
    <junction id="J15" type="priority" x="-610.79" y="67.10" incLanes="seg_3_before_0 seg_3_before_1 seg_3_before_2" intLanes=":J15_0_0 :J15_0_1 :J15_0_2" shape="-610.68,67.10 -610.61,57.50 -610.97,57.50 -610.90,67.10">
        <request index="0" response="000" foes="000" cont="0"/>
        <request index="1" response="000" foes="000" cont="0"/>
        <request index="2" response="000" foes="000" cont="0"/>
    </junction>
    <junction id="J16" type="priority" x="-682.82" y="67.64" incLanes="seg_4_before_0 seg_4_before_1 seg_4_before_2" intLanes=":J16_0_0 :J16_0_1 :J16_0_2" shape="-682.66,67.64 -682.73,58.04 -682.99,58.04 -682.98,67.64">
        <request index="0" response="000" foes="000" cont="0"/>
        <request index="1" response="000" foes="000" cont="0"/>
        <request index="2" response="000" foes="000" cont="0"/>
    </junction>
    <junction id="J17" type="priority" x="-757.71" y="67.72" incLanes="seg_5_before_0 seg_5_before_1 seg_5_before_2" intLanes=":J17_0_0 :J17_0_1 :J17_0_2" shape="-757.55,67.72 -757.56,58.12 -757.84,58.12 -757.87,67.72">
        <request index="0" response="000" foes="000" cont="0"/>
        <request index="1" response="000" foes="000" cont="0"/>
        <request index="2" response="000" foes="000" cont="0"/>
    </junction>
    <junction id="J18" type="priority" x="-891.97" y="67.28" incLanes="seg_6_before_0 seg_6_before_1 seg_6_before_2" intLanes=":J18_0_0 :J18_0_1 :J18_0_2" shape="-891.82,67.28 -891.79,57.68 -892.08,57.68 -892.12,67.28">
        <request index="0" response="000" foes="000" cont="0"/>
        <request index="1" response="000" foes="000" cont="0"/>
        <request index="2" response="000" foes="000" cont="0"/>
    </junction>
    <junction id="J19" type="priority" x="-1024.28" y="66.65" incLanes="seg_7_before_0 seg_7_before_1 seg_7_before_2" intLanes=":J19_0_0 :J19_0_1 :J19_0_2" shape="-1024.15,66.65 -1024.10,57.05 -1024.44,57.05 -1024.41,66.65">
        <request index="0" response="000" foes="000" cont="0"/>
        <request index="1" response="000" foes="000" cont="0"/>
        <request index="2" response="000" foes="000" cont="0"/>
    </junction>
    <junction id="J2" type="priority" x="761.88" y="74.32" incLanes="seg_0_after_0 seg_0_after_1" intLanes=":J2_0_0 :J2_0_1" shape="762.02,74.32 762.04,67.92 761.72,67.92 761.74,74.32">
        <request index="0" response="00" foes="00" cont="0"/>
        <request index="1" response="00" foes="00" cont="0"/>
    </junction>
    <junction id="J20" type="priority" x="-1166.23" y="67.06" incLanes="seg_8_before_0 seg_8_before_1 seg_8_before_2" intLanes=":J20_0_0 :J20_0_1 :J20_0_2" shape="-1166.07,67.06 -1166.10,57.46 -1166.38,57.46 -1166.39,67.06">
        <request index="0" response="000" foes="000" cont="0"/>
        <request index="1" response="000" foes="000" cont="0"/>
        <request index="2" response="000" foes="000" cont="0"/>
    </junction>
    <junction id="J21" type="priority" x="-1306.64" y="66.96" incLanes="seg_9_before_0 seg_9_before_1 seg_9_before_2" intLanes=":J21_0_0 :J21_0_1 :J21_0_2" shape="-1306.48,66.96 -1306.48,57.36 -1306.76,57.36 -1306.80,66.96">
        <request index="0" response="000" foes="000" cont="0"/>
        <request index="1" response="000" foes="000" cont="0"/>
        <request index="2" response="000" foes="000" cont="0"/>
    </junction>
    <junction id="J22" type="priority" x="-1451.83" y="66.40" incLanes="seg_10_before_0 seg_10_before_1 seg_10_before_2" intLanes=":J22_0_0 :J22_0_1 :J22_0_2" shape="-1451.67,66.40 -1451.63,56.80 -1451.91,56.80 -1451.99,66.40">
        <request index="0" response="000" foes="000" cont="0"/>
        <request index="1" response="000" foes="000" cont="0"/>
        <request index="2" response="000" foes="000" cont="0"/>
    </junction>
    <junction id="J23" type="dead_end" x="-1545.99" y="65.66" incLanes="" intLanes="" shape="-1545.99,65.66 -1545.91,56.06"/>
    <junction id="J24" type="dead_end" x="788.40" y="74.41" incLanes="seg_1_after_0 seg_1_after_1" intLanes="" shape="788.42,68.01 788.40,74.41"/>
    <junction id="J25" type="priority" x="166.05" y="76.56" incLanes="seg_0_before_0 seg_0_before_1 seg_0_before_2" intLanes=":J25_0_0 :J25_0_1" shape="170.08,76.54 170.06,70.14 167.06,69.33 166.10,68.55 165.15,67.78 163.92,67.17 162.15,66.91 162.03,76.51">
        <request index="0" response="00" foes="00" cont="0"/>
        <request index="1" response="00" foes="00" cont="0"/>
    </junction>
    <junction id="J3" type="dead_end" x="2430.90" y="62.68" incLanes="" intLanes="" shape="2430.90,62.68"/>

    <connection from="seg_0_after" to="seg_1_after" fromLane="0" toLane="0" via=":J2_0_0" dir="s" state="M"/>
    <connection from="seg_0_after" to="seg_1_after" fromLane="1" toLane="1" via=":J2_0_1" dir="s" state="M"/>
    <connection from="seg_0_before" to="seg_0_after" fromLane="1" toLane="0" via=":J25_0_0" dir="s" state="M"/>
    <connection from="seg_0_before" to="seg_0_after" fromLane="2" toLane="1" via=":J25_0_1" dir="s" state="M"/>
    <connection from="seg_10_before" to="seg_9_before" fromLane="0" toLane="0" via=":J22_0_0" dir="s" state="M"/>
    <connection from="seg_10_before" to="seg_9_before" fromLane="1" toLane="1" via=":J22_0_1" dir="s" state="M"/>
    <connection from="seg_10_before" to="seg_9_before" fromLane="2" toLane="2" via=":J22_0_2" dir="s" state="M"/>
    <connection from="seg_1_before" to="seg_0_before" fromLane="0" toLane="0" via=":J0_0_0" dir="s" state="M"/>
    <connection from="seg_1_before" to="seg_0_before" fromLane="1" toLane="1" via=":J0_0_1" dir="s" state="M"/>
    <connection from="seg_1_before" to="seg_0_before" fromLane="2" toLane="2" via=":J0_0_2" dir="s" state="M"/>
    <connection from="seg_2_before" to="seg_1_before" fromLane="0" toLane="0" via=":J13_0_0" dir="s" state="M"/>
    <connection from="seg_2_before" to="seg_1_before" fromLane="1" toLane="1" via=":J13_0_1" dir="s" state="M"/>
    <connection from="seg_2_before" to="seg_1_before" fromLane="2" toLane="2" via=":J13_0_2" dir="s" state="M"/>
    <connection from="seg_3_before" to="seg_2_before" fromLane="0" toLane="0" via=":J15_0_0" dir="s" state="M"/>
    <connection from="seg_3_before" to="seg_2_before" fromLane="1" toLane="1" via=":J15_0_1" dir="s" state="M"/>
    <connection from="seg_3_before" to="seg_2_before" fromLane="2" toLane="2" via=":J15_0_2" dir="s" state="M"/>
    <connection from="seg_4_before" to="seg_3_before" fromLane="0" toLane="0" via=":J16_0_0" dir="s" state="M"/>
    <connection from="seg_4_before" to="seg_3_before" fromLane="1" toLane="1" via=":J16_0_1" dir="s" state="M"/>
    <connection from="seg_4_before" to="seg_3_before" fromLane="2" toLane="2" via=":J16_0_2" dir="s" state="M"/>
    <connection from="seg_5_before" to="seg_4_before" fromLane="0" toLane="0" via=":J17_0_0" dir="s" state="M"/>
    <connection from="seg_5_before" to="seg_4_before" fromLane="1" toLane="1" via=":J17_0_1" dir="s" state="M"/>
    <connection from="seg_5_before" to="seg_4_before" fromLane="2" toLane="2" via=":J17_0_2" dir="s" state="M"/>
    <connection from="seg_6_before" to="seg_5_before" fromLane="0" toLane="0" via=":J18_0_0" dir="s" state="M"/>
    <connection from="seg_6_before" to="seg_5_before" fromLane="1" toLane="1" via=":J18_0_1" dir="s" state="M"/>
    <connection from="seg_6_before" to="seg_5_before" fromLane="2" toLane="2" via=":J18_0_2" dir="s" state="M"/>
    <connection from="seg_7_before" to="seg_6_before" fromLane="0" toLane="0" via=":J19_0_0" dir="s" state="M"/>
    <connection from="seg_7_before" to="seg_6_before" fromLane="1" toLane="1" via=":J19_0_1" dir="s" state="M"/>
    <connection from="seg_7_before" to="seg_6_before" fromLane="2" toLane="2" via=":J19_0_2" dir="s" state="M"/>
    <connection from="seg_8_before" to="seg_7_before" fromLane="0" toLane="0" via=":J20_0_0" dir="s" state="M"/>
    <connection from="seg_8_before" to="seg_7_before" fromLane="1" toLane="1" via=":J20_0_1" dir="s" state="M"/>
    <connection from="seg_8_before" to="seg_7_before" fromLane="2" toLane="2" via=":J20_0_2" dir="s" state="M"/>
    <connection from="seg_9_before" to="seg_8_before" fromLane="0" toLane="0" via=":J21_0_0" dir="s" state="M"/>
    <connection from="seg_9_before" to="seg_8_before" fromLane="1" toLane="1" via=":J21_0_1" dir="s" state="M"/>
    <connection from="seg_9_before" to="seg_8_before" fromLane="2" toLane="2" via=":J21_0_2" dir="s" state="M"/>

    <connection from=":J0_0" to="seg_0_before" fromLane="0" toLane="0" dir="s" state="M"/>
    <connection from=":J0_0" to="seg_0_before" fromLane="1" toLane="1" dir="s" state="M"/>
    <connection from=":J0_0" to="seg_0_before" fromLane="2" toLane="2" dir="s" state="M"/>
    <connection from=":J13_0" to="seg_1_before" fromLane="0" toLane="0" dir="s" state="M"/>
    <connection from=":J13_0" to="seg_1_before" fromLane="1" toLane="1" dir="s" state="M"/>
    <connection from=":J13_0" to="seg_1_before" fromLane="2" toLane="2" dir="s" state="M"/>
    <connection from=":J15_0" to="seg_2_before" fromLane="0" toLane="0" dir="s" state="M"/>
    <connection from=":J15_0" to="seg_2_before" fromLane="1" toLane="1" dir="s" state="M"/>
    <connection from=":J15_0" to="seg_2_before" fromLane="2" toLane="2" dir="s" state="M"/>
    <connection from=":J16_0" to="seg_3_before" fromLane="0" toLane="0" dir="s" state="M"/>
    <connection from=":J16_0" to="seg_3_before" fromLane="1" toLane="1" dir="s" state="M"/>
    <connection from=":J16_0" to="seg_3_before" fromLane="2" toLane="2" dir="s" state="M"/>
    <connection from=":J17_0" to="seg_4_before" fromLane="0" toLane="0" dir="s" state="M"/>
    <connection from=":J17_0" to="seg_4_before" fromLane="1" toLane="1" dir="s" state="M"/>
    <connection from=":J17_0" to="seg_4_before" fromLane="2" toLane="2" dir="s" state="M"/>
    <connection from=":J18_0" to="seg_5_before" fromLane="0" toLane="0" dir="s" state="M"/>
    <connection from=":J18_0" to="seg_5_before" fromLane="1" toLane="1" dir="s" state="M"/>
    <connection from=":J18_0" to="seg_5_before" fromLane="2" toLane="2" dir="s" state="M"/>
    <connection from=":J19_0" to="seg_6_before" fromLane="0" toLane="0" dir="s" state="M"/>
    <connection from=":J19_0" to="seg_6_before" fromLane="1" toLane="1" dir="s" state="M"/>
    <connection from=":J19_0" to="seg_6_before" fromLane="2" toLane="2" dir="s" state="M"/>
    <connection from=":J2_0" to="seg_1_after" fromLane="0" toLane="0" dir="s" state="M"/>
    <connection from=":J2_0" to="seg_1_after" fromLane="1" toLane="1" dir="s" state="M"/>
    <connection from=":J20_0" to="seg_7_before" fromLane="0" toLane="0" dir="s" state="M"/>
    <connection from=":J20_0" to="seg_7_before" fromLane="1" toLane="1" dir="s" state="M"/>
    <connection from=":J20_0" to="seg_7_before" fromLane="2" toLane="2" dir="s" state="M"/>
    <connection from=":J21_0" to="seg_8_before" fromLane="0" toLane="0" dir="s" state="M"/>
    <connection from=":J21_0" to="seg_8_before" fromLane="1" toLane="1" dir="s" state="M"/>
    <connection from=":J21_0" to="seg_8_before" fromLane="2" toLane="2" dir="s" state="M"/>
    <connection from=":J22_0" to="seg_9_before" fromLane="0" toLane="0" dir="s" state="M"/>
    <connection from=":J22_0" to="seg_9_before" fromLane="1" toLane="1" dir="s" state="M"/>
    <connection from=":J22_0" to="seg_9_before" fromLane="2" toLane="2" dir="s" state="M"/>
    <connection from=":J25_0" to="seg_0_after" fromLane="0" toLane="0" dir="s" state="M"/>
    <connection from=":J25_0" to="seg_0_after" fromLane="1" toLane="1" dir="s" state="M"/>

</net>
