<?xml version="1.0" encoding="UTF-8"?>

<!-- generated on 2022-11-11 21:51:57 by Eclipse SUMO netedit Version 1.14.1
-->

<routes xmlns:xsi="http://www.w3.org/2001/XMLSchema-instance" xsi:noNamespaceSchemaLocation="http://sumo.dlr.de/xsd/routes_file.xsd">
    <!-- Vehicles, persons and containers (sorted by depart) -->
    <flow id="f_0" begin="0.00" from="seg_10_before" to="seg_7_before" via="seg_9_before seg_8_before" end="3600.00" vehsPerHour="1800.00"/>
</routes>
