<?xml version="1.0" encoding="UTF-8"?>

<!-- generated on 2022-11-03 11:44:25 by Eclipse SUMO netedit Version 1.14.1
<configuration xmlns:xsi="http://www.w3.org/2001/XMLSchema-instance" xsi:noNamespaceSchemaLocation="http://sumo.dlr.de/xsd/netconvertConfiguration.xsd">

    <input>
        <sumo-net-file value="/home/till/projects/uni/intelligent%20transport/its-project/highway_junctions/2_1_merge/2_1_merge.net.xml"/>
    </input>

    <output>
        <output-file value="/home/till/projects/uni/intelligent%20transport/its-project/highway_junctions/2_1_merge/2_1_merge.net.xml"/>
    </output>

    <processing>
        <geometry.min-radius.fix.railways value="false"/>
        <geometry.max-grade.fix value="false"/>
        <offset.disable-normalization value="true"/>
        <lefthand value="false"/>
    </processing>

    <junctions>
        <no-turnarounds value="true"/>
        <junctions.corner-detail value="5"/>
        <junctions.limit-turn-speed value="5.5"/>
        <rectangular-lane-cut value="false"/>
    </junctions>

    <pedestrian>
        <walkingareas value="false"/>
    </pedestrian>

</configuration>
-->

<net version="1.9" junctionCornerDetail="5" limitTurnSpeed="5.50" xmlns:xsi="http://www.w3.org/2001/XMLSchema-instance" xsi:noNamespaceSchemaLocation="http://sumo.dlr.de/xsd/net_file.xsd">

    <location netOffset="0.00,0.00" convBoundary="-1645.01,62.68,2430.90,75.35" origBoundary="-10000000000.00,-10000000000.00,10000000000.00,10000000000.00" projParameter="!"/>

    <edge id=":J1_0" function="internal">
        <lane id=":J1_0_0" index="0" speed="13.89" length="8.40" shape="52.97,70.53 55.43,71.04 56.97,72.15 58.51,73.24 60.96,73.73"/>
        <lane id=":J1_0_1" index="1" speed="13.89" length="8.40" shape="52.96,73.73 60.96,73.73"/>
    </edge>
    <edge id=":J2_0" function="internal">
        <lane id=":J2_0_0" index="0" speed="13.89" length="8.40" shape="1359.10,67.47 1361.56,66.96 1363.09,65.85 1364.62,64.74 1367.08,64.23"/>
        <lane id=":J2_0_1" index="1" speed="13.89" length="8.40" shape="1359.10,67.47 1367.10,67.43"/>
    </edge>

    <edge id="E0" from="J2" to="J3" priority="-1">
        <lane id="E0_0" index="0" speed="13.89" length="1063.81" shape="1367.08,64.23 2430.87,57.88"/>
        <lane id="E0_1" index="1" speed="13.89" length="1063.81" shape="1367.10,67.43 2430.89,61.08"/>
    </edge>
    <edge id="seg_0_after" from="J1" to="J2" priority="-1">
        <lane id="seg_0_after_0" index="0" speed="13.89" length="1298.15" shape="60.96,73.73 1359.10,67.47"/>
    </edge>
    <edge id="seg_0_before" from="J0" to="J1" priority="-1" shape="-1645.01,74.38 -659.79,72.48 56.96,75.35">
        <lane id="seg_0_before_0" index="0" speed="13.89" length="1697.99" shape="-1645.02,69.58 -659.79,67.68 52.97,70.53"/>
        <lane id="seg_0_before_1" index="1" speed="13.89" length="1697.99" shape="-1645.01,72.78 -659.79,70.88 52.96,73.73"/>
    </edge>

    <junction id="J0" type="dead_end" x="-1645.01" y="74.38" incLanes="" intLanes="" shape="-1645.01,74.38 -1645.02,67.98"/>
    <junction id="J1" type="zipper" x="56.96" y="75.35" incLanes="seg_0_before_0 seg_0_before_1" intLanes=":J1_0_0 :J1_0_1" shape="60.97,75.33 60.96,72.13 57.93,71.31 56.97,70.55 56.00,69.78 54.76,69.18 52.98,68.93 52.95,75.33">
        <request index="0" response="10" foes="10" cont="0"/>
        <request index="1" response="01" foes="01" cont="0"/>
    </junction>
    <junction id="J2" type="priority" x="1363.11" y="69.05" incLanes="seg_0_after_0" intLanes=":J2_0_0 :J2_0_1" shape="1367.11,69.03 1367.07,62.63 1364.05,63.47 1362.12,65.03 1360.88,65.62 1359.09,65.87 1359.11,69.07">
        <request index="0" response="00" foes="00" cont="0"/>
        <request index="1" response="00" foes="00" cont="0"/>
    </junction>
    <junction id="J3" type="dead_end" x="2430.90" y="62.68" incLanes="E0_0 E0_1" intLanes="" shape="2430.86,56.28 2430.90,62.68"/>

    <connection from="seg_0_after" to="E0" fromLane="0" toLane="0" via=":J2_0_0" dir="s" state="M"/>
    <connection from="seg_0_after" to="E0" fromLane="0" toLane="1" via=":J2_0_1" dir="s" state="M"/>
    <connection from="seg_0_before" to="seg_0_after" fromLane="0" toLane="0" via=":J1_0_0" dir="s" state="Z"/>
    <connection from="seg_0_before" to="seg_0_after" fromLane="1" toLane="0" via=":J1_0_1" dir="s" state="Z"/>

    <connection from=":J1_0" to="seg_0_after" fromLane="0" toLane="0" dir="s" state="M"/>
    <connection from=":J1_0" to="seg_0_after" fromLane="1" toLane="0" dir="s" state="M"/>
    <connection from=":J2_0" to="E0" fromLane="0" toLane="0" dir="s" state="M"/>
    <connection from=":J2_0" to="E0" fromLane="1" toLane="1" dir="s" state="M"/>

</net>
