<?xml version="1.0" encoding="UTF-8"?>

<!-- generated on 2022-11-10 12:16:38 by Eclipse SUMO netedit Version 1.14.1
-->

<routes xmlns:xsi="http://www.w3.org/2001/XMLSchema-instance" xsi:noNamespaceSchemaLocation="http://sumo.dlr.de/xsd/routes_file.xsd">
    <!-- Routes -->
    <route id="r_0" edges="E1 seg_0_before seg_0_after"/>
    <route id="r_1" edges="E2 seg_0_before seg_0_after"/>
    <route id="r_2" edges="E3 seg_0_before seg_0_after"/>
    <!-- Vehicles, persons and containers (sorted by depart) -->
    <flow id="f_0" begin="0.00" route="r_1" end="3600.00" vehsPerHour="1800.00"/>
    <flow id="f_1" begin="0.00" route="r_2" end="3600.00" vehsPerHour="1800.00"/>
    <flow id="f_2" begin="0.00" route="r_0" end="3600.00" vehsPerHour="1800.00"/>
</routes>
