<?xml version="1.0" encoding="UTF-8"?>

<!-- generated on 2022-11-11 18:34:08 by Eclipse SUMO netedit Version 1.14.1
-->

<routes xmlns:xsi="http://www.w3.org/2001/XMLSchema-instance" xsi:noNamespaceSchemaLocation="http://sumo.dlr.de/xsd/routes_file.xsd">
    <!-- VTypes -->
    <vType id="DEFAULT_VEHTYPE" accel="0.8" tau="1.30"/>
    <!-- Routes -->
    <route id="r_0" edges="E1 seg_0_before seg_0_after"/>
    <route id="r_1" edges="E2 seg_0_before seg_0_after"/>
    <route id="r_2" edges="E3 seg_0_before seg_0_after"/>
    <!-- Vehicles, persons and containers (sorted by depart) -->
    <flow id="f_1" begin="0.00" route="r_2" end="50.00" period="exp(2.00)"/>
    <flow id="f_2" begin="0.00" route="r_0" end="50.00" period="exp(2.00)"/>
</routes>
