<?xml version="1.0" encoding="UTF-8"?>

<!-- generated on 2022-11-11 14:17:36 by Eclipse SUMO netedit Version 1.14.1
-->

<routes xmlns:xsi="http://www.w3.org/2001/XMLSchema-instance" xsi:noNamespaceSchemaLocation="http://sumo.dlr.de/xsd/routes_file.xsd">
    <!-- Routes -->
    <route id="r_0" edges="E1 seg_0_before"/>
</routes>
