<?xml version="1.0" encoding="UTF-8"?>

<!-- generated on 2022-11-11 22:50:59 by Eclipse SUMO netedit Version 1.14.1
-->

<routes xmlns:xsi="http://www.w3.org/2001/XMLSchema-instance" xsi:noNamespaceSchemaLocation="http://sumo.dlr.de/xsd/routes_file.xsd">
    <!-- VTypes -->
    <vType id="DEFAULT_VEHTYPE" speedFactor="norm(1.00,0.10)" accel="0.80" tau="1.30"/>
    <!-- Routes -->
    <route id="r_0" edges="seg_10_before seg_9_before seg_8_before seg_7_before seg_6_before seg_5_before seg_4_before seg_3_before seg_2_before seg_1_before seg_0_before seg_0_after seg_1_after"/>
    <!-- Vehicles, persons and containers (sorted by depart) -->
    <flow id="f_3" begin="300.00" departLane="free" departPos="free" departSpeed="speedLimit" route="r_0" end="900.00" vehsPerHour="1500.00"/>
    <flow id="f_1" begin="900.00" departLane="free" departPos="free" departSpeed="speedLimit" route="r_0" end="1800.00" vehsPerHour="4500.00"/>
    <flow id="f_2" begin="1800.00" departLane="free" departPos="free" departSpeed="speedLimit" route="r_0" end="3600.00" vehsPerHour="1500.00"/>
</routes>
