<?xml version="1.0" encoding="UTF-8"?>

<!-- generated on 2022-10-13 09:56:50 by Eclipse SUMO netedit Version 1.14.1
<configuration xmlns:xsi="http://www.w3.org/2001/XMLSchema-instance" xsi:noNamespaceSchemaLocation="http://sumo.dlr.de/xsd/netconvertConfiguration.xsd">

    <input>
        <sumo-net-file value="/home/till/projects/uni/intelligent%20transport/Project%20Speed%20Adaption/first_lane_merges.net.xml"/>
    </input>

    <output>
        <output-file value="/home/till/projects/uni/intelligent%20transport/project%20speed%20adaption/its-project/sample%20junctions/three_samples.net.xml"/>
    </output>

    <processing>
        <geometry.min-radius.fix.railways value="false"/>
        <geometry.max-grade.fix value="false"/>
        <offset.disable-normalization value="true"/>
        <lefthand value="false"/>
    </processing>

    <junctions>
        <no-turnarounds value="true"/>
        <junctions.corner-detail value="5"/>
        <junctions.limit-turn-speed value="5.5"/>
        <rectangular-lane-cut value="false"/>
    </junctions>

    <pedestrian>
        <walkingareas value="false"/>
    </pedestrian>

</configuration>
-->

<net version="1.9" junctionCornerDetail="5" limitTurnSpeed="5.50" xmlns:xsi="http://www.w3.org/2001/XMLSchema-instance" xsi:noNamespaceSchemaLocation="http://sumo.dlr.de/xsd/net_file.xsd">

    <location netOffset="0.00,0.00" convBoundary="-42.33,-38.06,264.15,80.15" origBoundary="-10000000000.00,-10000000000.00,10000000000.00,10000000000.00" projParameter="!"/>

    <edge id=":J1_0" function="internal">
        <lane id=":J1_0_0" index="0" speed="8.98" length="3.82" shape="48.34,70.43 49.32,70.99 50.04,71.29 50.82,71.41 51.95,71.44"/>
    </edge>
    <edge id=":J1_1" function="internal">
        <lane id=":J1_1_0" index="0" speed="13.89" length="3.73" shape="48.19,74.71 51.93,74.64"/>
        <lane id=":J1_1_1" index="1" speed="13.89" length="3.73" shape="48.20,77.91 51.91,77.84"/>
    </edge>
    <edge id=":J11_0" function="internal">
        <lane id=":J11_0_0" index="0" speed="13.89" length="8.00" shape="187.55,75.33 195.55,75.34"/>
        <lane id=":J11_0_1" index="1" speed="13.89" length="8.00" shape="187.54,78.53 195.55,78.54"/>
    </edge>
    <edge id=":J5_0" function="internal">
        <lane id=":J5_0_0" index="0" speed="13.89" length="8.81" shape="49.03,10.42 51.50,10.91 53.04,12.00 54.59,13.10 57.05,13.59"/>
        <lane id=":J5_0_1" index="1" speed="13.89" length="8.81" shape="49.05,13.62 51.51,14.11 53.05,15.20 54.59,16.30 57.06,16.79"/>
    </edge>
    <edge id=":J8_0" function="internal">
        <lane id=":J8_0_0" index="0" speed="13.89" length="8.00" shape="51.59,-38.85 59.59,-38.78"/>
    </edge>

    <edge id="E0.22" from="J10" to="J1" priority="-1">
        <lane id="E0.22_0" index="0" speed="13.89" length="90.53" shape="-42.34,74.90 48.19,74.71"/>
        <lane id="E0.22_1" index="1" speed="13.89" length="90.53" shape="-42.33,78.10 48.20,77.91"/>
    </edge>
    <edge id="E1" from="J1" to="J11" priority="-1" length="100.00">
        <lane id="E1_0" index="0" speed="13.89" length="100.00" shape="51.95,71.44 187.57,72.13"/>
        <lane id="E1_1" index="1" speed="13.89" length="100.00" shape="51.93,74.64 187.55,75.33"/>
        <lane id="E1_2" index="2" speed="13.89" length="100.00" shape="51.91,77.84 187.54,78.53"/>
    </edge>
    <edge id="E2" from="J3" to="J1" priority="-1">
        <lane id="E2_0" index="0" speed="13.89" length="43.81" shape="10.83,47.80 48.34,70.43"/>
    </edge>
    <edge id="E3" from="J4" to="J5" priority="-1">
        <lane id="E3_0" index="0" speed="13.89" length="90.24" shape="-41.21,10.97 49.03,10.42"/>
        <lane id="E3_1" index="1" speed="13.89" length="90.24" shape="-41.19,14.17 49.05,13.62"/>
        <lane id="E3_2" index="2" speed="13.89" length="90.24" shape="-41.17,17.37 49.07,16.82"/>
    </edge>
    <edge id="E4" from="J5" to="J6" priority="-1">
        <lane id="E4_0" index="0" speed="13.89" length="197.28" shape="57.05,13.59 254.33,13.34"/>
        <lane id="E4_1" index="1" speed="13.89" length="197.28" shape="57.06,16.79 254.34,16.54"/>
    </edge>
    <edge id="E5" from="J7" to="J8" priority="-1">
        <lane id="E5_0" index="0" speed="13.89" length="92.78" shape="-41.13,-46.06 51.65,-45.24"/>
        <lane id="E5_1" index="1" speed="13.89" length="92.78" shape="-41.16,-42.86 51.62,-42.04"/>
        <lane id="E5_2" index="2" speed="13.89" length="92.78" shape="-41.19,-39.66 51.59,-38.85"/>
    </edge>
    <edge id="E6" from="J8" to="J9" priority="-1">
        <lane id="E6_0" index="0" speed="13.89" length="204.58" shape="59.59,-38.78 264.16,-37.06"/>
    </edge>
    <edge id="E7" from="J11" to="J12" priority="-1">
        <lane id="E7_0" index="0" speed="13.89" length="58.90" shape="195.55,75.34 254.45,75.20"/>
        <lane id="E7_1" index="1" speed="13.89" length="58.90" shape="195.55,78.54 254.46,78.40"/>
    </edge>

    <junction id="J1" type="priority" x="60.26" y="79.48" incLanes="E2_0 E0.22_0 E0.22_1" intLanes=":J1_0_0 :J1_1_0 :J1_1_1" shape="51.91,79.44 51.95,69.84 50.87,69.80 50.48,69.72 50.12,69.59 49.71,69.37 49.17,69.06 47.52,71.80 48.56,72.52 48.77,72.78 48.78,72.96 48.58,73.07 48.19,73.11 48.20,79.51">
        <request index="0" response="000" foes="000" cont="0"/>
        <request index="1" response="000" foes="000" cont="0"/>
        <request index="2" response="000" foes="000" cont="0"/>
    </junction>
    <junction id="J10" type="dead_end" x="-42.33" y="79.70" incLanes="" intLanes="" shape="-42.33,79.70 -42.34,73.30"/>
    <junction id="J11" type="priority" x="191.54" y="80.15" incLanes="E1_0 E1_1 E1_2" intLanes=":J11_0_0 :J11_0_1" shape="195.56,80.14 195.54,73.74 192.52,72.92 191.56,72.15 190.60,71.37 189.36,70.78 187.58,70.53 187.53,80.13">
        <request index="0" response="00" foes="00" cont="0"/>
        <request index="1" response="00" foes="00" cont="0"/>
    </junction>
    <junction id="J12" type="dead_end" x="254.46" y="80.00" incLanes="E7_0 E7_1" intLanes="" shape="254.44,73.60 254.46,80.00"/>
    <junction id="J3" type="dead_end" x="10.00" y="49.17" incLanes="" intLanes="" shape="10.00,49.17 11.65,46.43"/>
    <junction id="J4" type="dead_end" x="-41.16" y="18.97" incLanes="" intLanes="" shape="-41.16,18.97 -41.22,9.37"/>
    <junction id="J5" type="priority" x="53.07" y="18.40" incLanes="E3_0 E3_1 E3_2" intLanes=":J5_0_0 :J5_0_1" shape="57.06,18.39 57.05,11.99 54.01,11.17 52.06,9.64 50.81,9.05 49.02,8.82 49.08,18.42">
        <request index="0" response="00" foes="00" cont="0"/>
        <request index="1" response="00" foes="00" cont="0"/>
    </junction>
    <junction id="J6" type="dead_end" x="254.34" y="18.14" incLanes="E4_0 E4_1" intLanes="" shape="254.33,11.74 254.34,18.14"/>
    <junction id="J7" type="dead_end" x="-41.20" y="-38.06" incLanes="" intLanes="" shape="-41.20,-38.06 -41.12,-47.66"/>
    <junction id="J8" type="priority" x="55.58" y="-37.21" incLanes="E5_0 E5_1 E5_2" intLanes=":J8_0_0" shape="59.58,-37.18 59.61,-40.38 57.60,-40.87 56.41,-42.06 54.86,-45.16 53.68,-46.35 51.66,-46.84 51.58,-37.25">
        <request index="0" response="0" foes="0" cont="0"/>
    </junction>
    <junction id="J9" type="dead_end" x="264.15" y="-35.46" incLanes="E6_0" intLanes="" shape="264.18,-38.66 264.15,-35.46"/>

    <connection from="E0.22" to="E1" fromLane="0" toLane="1" via=":J1_1_0" dir="s" state="M"/>
    <connection from="E0.22" to="E1" fromLane="1" toLane="2" via=":J1_1_1" dir="s" state="M"/>
    <connection from="E1" to="E7" fromLane="1" toLane="0" via=":J11_0_0" dir="s" state="M"/>
    <connection from="E1" to="E7" fromLane="2" toLane="1" via=":J11_0_1" dir="s" state="M"/>
    <connection from="E2" to="E1" fromLane="0" toLane="0" via=":J1_0_0" dir="s" state="M"/>
    <connection from="E3" to="E4" fromLane="0" toLane="0" via=":J5_0_0" dir="s" state="M"/>
    <connection from="E3" to="E4" fromLane="1" toLane="1" via=":J5_0_1" dir="s" state="M"/>
    <connection from="E5" to="E6" fromLane="2" toLane="0" via=":J8_0_0" dir="s" state="M"/>

    <connection from=":J1_0" to="E1" fromLane="0" toLane="0" dir="s" state="M"/>
    <connection from=":J1_1" to="E1" fromLane="0" toLane="1" dir="s" state="M"/>
    <connection from=":J1_1" to="E1" fromLane="1" toLane="2" dir="s" state="M"/>
    <connection from=":J11_0" to="E7" fromLane="0" toLane="0" dir="s" state="M"/>
    <connection from=":J11_0" to="E7" fromLane="1" toLane="1" dir="s" state="M"/>
    <connection from=":J5_0" to="E4" fromLane="0" toLane="0" dir="s" state="M"/>
    <connection from=":J5_0" to="E4" fromLane="1" toLane="1" dir="s" state="M"/>
    <connection from=":J8_0" to="E6" fromLane="0" toLane="0" dir="s" state="M"/>

</net>
