<?xml version="1.0" encoding="UTF-8"?>

<!-- generated on 2022-10-13 11:21:24 by Eclipse SUMO netedit Version 1.14.1
-->

<routes xmlns:xsi="http://www.w3.org/2001/XMLSchema-instance" xsi:noNamespaceSchemaLocation="http://sumo.dlr.de/xsd/routes_file.xsd">
    <!-- Routes -->
    <route id="r_0" edges="E9 E1 E7"/>
    <route id="r_1" edges="E2 E1 E7"/>
    <!-- Vehicles, persons and containers (sorted by depart) -->
    <flow id="f_0" begin="0.00" route="r_0" end="3600.00" vehsPerHour="1800.00"/>
    <flow id="f_1" begin="0.00" route="r_1" end="3600.00" vehsPerHour="1800.00"/>
</routes>
