<?xml version="1.0" encoding="UTF-8"?>

<!-- generated on 2022-10-13 11:19:32 by Eclipse SUMO netedit Version 1.14.1
<configuration xmlns:xsi="http://www.w3.org/2001/XMLSchema-instance" xsi:noNamespaceSchemaLocation="http://sumo.dlr.de/xsd/netconvertConfiguration.xsd">

    <input>
        <sumo-net-file value="/home/till/projects/uni/intelligent%20transport/Project%20Speed%20Adaption/first_lane_merges.net.xml"/>
    </input>

    <output>
        <output-file value="/home/till/projects/uni/intelligent%20transport/its-project/speed%20limits%20and%20modification/different_speed_on_edges-on_ramp.net.xml"/>
    </output>

    <processing>
        <geometry.min-radius.fix.railways value="false"/>
        <geometry.max-grade.fix value="false"/>
        <offset.disable-normalization value="true"/>
        <lefthand value="false"/>
    </processing>

    <junctions>
        <no-turnarounds value="true"/>
        <junctions.corner-detail value="5"/>
        <junctions.limit-turn-speed value="5.5"/>
        <rectangular-lane-cut value="false"/>
    </junctions>

    <pedestrian>
        <walkingareas value="false"/>
    </pedestrian>

    <netedit>
        <route-files value="/home/till/projects/uni/intelligent%20transport/its-project/speed%20limits%20and%20modification/different%20speed%20on%20edges_%20on%20ramp.rou.xml"/>
    </netedit>

</configuration>
-->

<net version="1.9" junctionCornerDetail="5" limitTurnSpeed="5.50" xmlns:xsi="http://www.w3.org/2001/XMLSchema-instance" xsi:noNamespaceSchemaLocation="http://sumo.dlr.de/xsd/net_file.xsd">

    <location netOffset="0.00,0.00" convBoundary="-92.16,49.17,254.46,80.15" origBoundary="-10000000000.00,-10000000000.00,10000000000.00,10000000000.00" projParameter="!"/>

    <edge id=":J1_0" function="internal">
        <lane id=":J1_0_0" index="0" speed="8.98" length="3.82" shape="48.34,70.43 49.32,70.99 50.04,71.29 50.82,71.41 51.95,71.44"/>
    </edge>
    <edge id=":J1_1" function="internal">
        <lane id=":J1_1_0" index="0" speed="10.00" length="3.91" shape="48.02,74.60 51.93,74.64"/>
        <lane id=":J1_1_1" index="1" speed="10.00" length="3.91" shape="48.00,77.80 51.91,77.84"/>
    </edge>
    <edge id=":J11_0" function="internal">
        <lane id=":J11_0_0" index="0" speed="10.00" length="8.00" shape="187.55,75.33 195.55,75.34"/>
        <lane id=":J11_0_1" index="1" speed="10.00" length="8.00" shape="187.54,78.53 195.55,78.54"/>
    </edge>

    <edge id="E1" from="J1" to="J11" priority="-1" length="100.00">
        <lane id="E1_0" index="0" speed="10.00" length="100.00" shape="51.95,71.44 187.57,72.13"/>
        <lane id="E1_1" index="1" speed="10.00" length="100.00" shape="51.93,74.64 187.55,75.33"/>
        <lane id="E1_2" index="2" speed="10.00" length="100.00" shape="51.91,77.84 187.54,78.53"/>
    </edge>
    <edge id="E2" from="J3" to="J1" priority="-1">
        <lane id="E2_0" index="0" speed="10.00" length="43.81" shape="10.83,47.80 48.34,70.43"/>
    </edge>
    <edge id="E7" from="J11" to="J12" priority="-1">
        <lane id="E7_0" index="0" speed="10.00" length="58.90" shape="195.55,75.34 254.45,75.20"/>
        <lane id="E7_1" index="1" speed="10.00" length="58.90" shape="195.55,78.54 254.46,78.40"/>
    </edge>
    <edge id="E9" from="J10" to="J1" priority="-1">
        <lane id="E9_0" index="0" speed="10.00" length="140.15" shape="-92.13,73.69 48.02,74.60"/>
        <lane id="E9_1" index="1" speed="10.00" length="140.15" shape="-92.15,76.89 48.00,77.80"/>
    </edge>

    <junction id="J1" type="priority" x="60.26" y="79.48" incLanes="E2_0 E9_0 E9_1" intLanes=":J1_0_0 :J1_1_0 :J1_1_1" shape="51.91,79.44 51.95,69.84 50.87,69.80 50.48,69.72 50.12,69.59 49.71,69.37 49.17,69.06 47.52,71.80 48.47,72.47 48.65,72.70 48.64,72.87 48.43,72.97 48.03,73.00 47.99,79.40">
        <request index="0" response="000" foes="000" cont="0"/>
        <request index="1" response="000" foes="000" cont="0"/>
        <request index="2" response="000" foes="000" cont="0"/>
    </junction>
    <junction id="J10" type="dead_end" x="-92.16" y="78.49" incLanes="" intLanes="" shape="-92.16,78.49 -92.12,72.09"/>
    <junction id="J11" type="priority" x="191.54" y="80.15" incLanes="E1_0 E1_1 E1_2" intLanes=":J11_0_0 :J11_0_1" shape="195.56,80.14 195.54,73.74 192.52,72.92 191.56,72.15 190.60,71.37 189.36,70.78 187.58,70.53 187.53,80.13">
        <request index="0" response="00" foes="00" cont="0"/>
        <request index="1" response="00" foes="00" cont="0"/>
    </junction>
    <junction id="J12" type="dead_end" x="254.46" y="80.00" incLanes="E7_0 E7_1" intLanes="" shape="254.44,73.60 254.46,80.00"/>
    <junction id="J3" type="dead_end" x="10.00" y="49.17" incLanes="" intLanes="" shape="10.00,49.17 11.65,46.43"/>

    <connection from="E1" to="E7" fromLane="1" toLane="0" via=":J11_0_0" dir="s" state="M"/>
    <connection from="E1" to="E7" fromLane="2" toLane="1" via=":J11_0_1" dir="s" state="M"/>
    <connection from="E2" to="E1" fromLane="0" toLane="0" via=":J1_0_0" dir="s" state="M"/>
    <connection from="E9" to="E1" fromLane="0" toLane="1" via=":J1_1_0" dir="s" state="M"/>
    <connection from="E9" to="E1" fromLane="1" toLane="2" via=":J1_1_1" dir="s" state="M"/>

    <connection from=":J1_0" to="E1" fromLane="0" toLane="0" dir="s" state="M"/>
    <connection from=":J1_1" to="E1" fromLane="0" toLane="1" dir="s" state="M"/>
    <connection from=":J1_1" to="E1" fromLane="1" toLane="2" dir="s" state="M"/>
    <connection from=":J11_0" to="E7" fromLane="0" toLane="0" dir="s" state="M"/>
    <connection from=":J11_0" to="E7" fromLane="1" toLane="1" dir="s" state="M"/>

</net>
